data_VESTA_phase_1
_audit_creation_method         'generated by CrystalMaker 9.2.9'
_cell_length_a                   3.9050(0)
_cell_length_b                   3.9050(0)
_cell_length_c                   3.9050(0)
_cell_angle_alpha               90.0000(0)
_cell_angle_beta                90.0000(0)
_cell_angle_gamma               90.0000(0)

_symmetry_space_group_name_H-M     'P 1'
_symmetry_Int_Tables_number         1
_symmetry_cell_setting             triclinic
loop_
_symmetry_equiv_pos_as_xyz
'+x,+y,+z'

loop_
_atom_site_label
_atom_site_type_symbol
_atom_site_occupancy
_atom_site_fract_x
_atom_site_fract_y
_atom_site_fract_z
_atom_site_U_iso_or_equiv
    O1    O  1.0000      0.5000    0.5000    0.0000    0.0093
    O2    O  1.0000      0.5000    0.0000    0.5000    0.0093
    O3    O  1.0000      0.0000    0.5000    0.5000    0.0093
   Ti1    Ti 1.0000      0.5000    0.5000    0.5000    0.0056
   Sr1    Sr 1.0000      0.0000    0.0000    0.0000    0.0079

