data_VESTA_phase_1
_audit_creation_method         'generated by CrystalMaker 9.2.9'
_cell_length_a                   5.5300(0)
_cell_length_b                   7.8450(0)
_cell_length_c                  23.5404(0)
_cell_angle_alpha               90.0000(0)
_cell_angle_beta               134.8090(0)
_cell_angle_gamma               90.0000(0)

_symmetry_space_group_name_H-M     'P 1'
_symmetry_Int_Tables_number         1
_symmetry_cell_setting             triclinic
loop_
_symmetry_equiv_pos_as_xyz
'+x,+y,+z'

loop_
_atom_site_label
_atom_site_type_symbol
_atom_site_occupancy
_atom_site_fract_x
_atom_site_fract_y
_atom_site_fract_z
_atom_site_U_iso_or_equiv
    O1    O  1.0000      0.4692    0.2500    0.1570    0.0127
    O1    O  1.0000      0.4692    0.2500    0.4903    0.0127
    O1    O  1.0000      0.4692    0.2500    0.8236    0.0127
    O1    O  1.0000      0.4726    0.7500    0.3236    0.0127
    O1    O  1.0000      0.4726    0.7500    0.6570    0.0127
    O1    O  1.0000      0.4726    0.7500    0.9903    0.0127
    O1    O  1.0000      0.5308    0.7500    0.1764    0.0127
    O1    O  1.0000      0.5308    0.7500    0.5097    0.0127
    O1    O  1.0000      0.5308    0.7500    0.8430    0.0127
    O1    O  1.0000      0.5274    0.2500    0.0097    0.0127
    O1    O  1.0000      0.5274    0.2500    0.3430    0.0127
    O1    O  1.0000      0.5274    0.2500    0.6764    0.0127
    O2    O  1.0000      0.5291    0.0146    0.2549    0.0127
    O2    O  1.0000      0.5291    0.0146    0.5882    0.0127
    O2    O  1.0000      0.5291    0.0146    0.9215    0.0127
    O2    O  1.0000      0.0001    0.9854    0.0882    0.0127
    O2    O  1.0000      0.0001    0.9854    0.4215    0.0127
    O2    O  1.0000      0.0001    0.9854    0.7549    0.0127
    O2    O  1.0000      0.4709    0.5146    0.0785    0.0127
    O2    O  1.0000      0.4709    0.5146    0.4118    0.0127
    O2    O  1.0000      0.4709    0.5146    0.7451    0.0127
    O2    O  1.0000      0.9999    0.0146    0.2451    0.0127
    O2    O  1.0000      0.9999    0.0146    0.5785    0.0127
    O2    O  1.0000      0.9999    0.0146    0.9118    0.0127
    O2    O  1.0000      0.9999    0.4854    0.2451    0.0127
    O2    O  1.0000      0.9999    0.4854    0.5785    0.0127
    O2    O  1.0000      0.9999    0.4854    0.9118    0.0127
    O2    O  1.0000      0.0001    0.5146    0.0882    0.0127
    O2    O  1.0000      0.0001    0.5146    0.4215    0.0127
    O2    O  1.0000      0.0001    0.5146    0.7549    0.0127
    O2    O  1.0000      0.4709    0.9854    0.0785    0.0127
    O2    O  1.0000      0.4709    0.9854    0.4118    0.0127
    O2    O  1.0000      0.4709    0.9854    0.7451    0.0127
    O2    O  1.0000      0.5291    0.4854    0.2549    0.0127
    O2    O  1.0000      0.5291    0.4854    0.5882    0.0127
    O2    O  1.0000      0.5291    0.4854    0.9215    0.0127
   Ru1    Ru 1.0000      0.5000    0.0000    0.0000    0.0127
   Ru1    Ru 1.0000      0.5000    0.0000    0.3333    0.0127
   Ru1    Ru 1.0000      0.5000    0.0000    0.6667    0.0127
   Ru1    Ru 1.0000      0.5000    0.0000    0.1667    0.0127
   Ru1    Ru 1.0000      0.5000    0.0000    0.5000    0.0127
   Ru1    Ru 1.0000      0.5000    0.0000    0.8333    0.0127
   Ru1    Ru 1.0000      0.5000    0.5000    0.0000    0.0127
   Ru1    Ru 1.0000      0.5000    0.5000    0.3333    0.0127
   Ru1    Ru 1.0000      0.5000    0.5000    0.6667    0.0127
   Ru1    Ru 1.0000      0.5000    0.5000    0.1667    0.0127
   Ru1    Ru 1.0000      0.5000    0.5000    0.5000    0.0127
   Ru1    Ru 1.0000      0.5000    0.5000    0.8333    0.0127
   Sr1    Sr 1.0000      0.0050    0.2500    0.1669    0.0127
   Sr1    Sr 1.0000      0.0050    0.2500    0.5002    0.0127
   Sr1    Sr 1.0000      0.0050    0.2500    0.8336    0.0127
   Sr1    Sr 1.0000      0.9964    0.7500    0.0002    0.0127
   Sr1    Sr 1.0000      0.9964    0.7500    0.3336    0.0127
   Sr1    Sr 1.0000      0.9964    0.7500    0.6669    0.0127
   Sr1    Sr 1.0000      0.9950    0.7500    0.1664    0.0127
   Sr1    Sr 1.0000      0.9950    0.7500    0.4998    0.0127
   Sr1    Sr 1.0000      0.9950    0.7500    0.8331    0.0127
   Sr1    Sr 1.0000      0.0036    0.2500    0.3331    0.0127
   Sr1    Sr 1.0000      0.0036    0.2500    0.6664    0.0127
   Sr1    Sr 1.0000      0.0036    0.2500    0.9998    0.0127

